Version 4
SHEET 1 1088 680
WIRE 80 -112 32 -112
WIRE 224 -112 160 -112
WIRE 288 -112 224 -112
WIRE 400 -112 368 -112
WIRE 224 -64 224 -112
WIRE 128 0 -16 0
WIRE 400 0 128 0
WIRE 592 0 496 0
WIRE 656 0 592 0
WIRE 784 0 736 0
WIRE 832 0 784 0
WIRE 976 0 832 0
WIRE 128 32 128 0
WIRE 832 48 832 0
WIRE 592 80 592 0
WIRE 976 96 976 0
WIRE 352 112 352 80
WIRE -16 128 -16 0
WIRE 128 128 128 112
WIRE 320 128 128 128
WIRE 448 144 448 64
WIRE 448 144 384 144
WIRE 544 144 448 144
WIRE 784 144 784 0
WIRE 784 144 640 144
WIRE 320 160 208 160
WIRE 128 208 128 128
WIRE 352 208 352 176
WIRE -16 256 -16 208
WIRE 976 256 976 176
WIRE 208 304 208 160
WIRE 832 304 832 128
WIRE 832 304 208 304
WIRE 128 336 128 272
WIRE 832 352 832 304
WIRE 832 464 832 432
FLAG 224 -64 0
FLAG 400 -112 +Vcc
IOPIN 400 -112 Out
FLAG 32 -112 -Vcc
IOPIN 32 -112 Out
FLAG -16 256 0
FLAG 128 336 0
FLAG 832 464 0
FLAG 976 256 0
FLAG 352 208 +Vcc
IOPIN 352 208 In
FLAG 352 80 -Vcc
IOPIN 352 80 In
SYMBOL voltage -16 112 R0
WINDOW 123 0 0 Left 0
WINDOW 39 0 0 Left 0
SYMATTR InstName V1
SYMATTR Value 10
SYMBOL voltage 384 -112 R90
WINDOW 0 -32 56 VBottom 2
WINDOW 3 32 56 VTop 2
WINDOW 123 0 0 Left 0
WINDOW 39 0 0 Left 0
SYMATTR InstName V2
SYMATTR Value 20
SYMBOL voltage 176 -112 R90
WINDOW 0 32 56 VTop 2
WINDOW 3 -32 56 VBottom 2
WINDOW 123 0 0 Left 0
WINDOW 39 0 0 Left 0
SYMATTR InstName V3
SYMATTR Value 20
SYMBOL res 112 16 R0
SYMATTR InstName R1
SYMATTR Value 1k
SYMBOL npn 400 64 R270
SYMATTR InstName Q1
SYMATTR Value 2N3904
SYMBOL npn 544 80 M90
SYMATTR InstName Q2
SYMATTR Value 2N3904
SYMBOL res 848 144 R180
WINDOW 0 36 76 Left 2
WINDOW 3 36 40 Left 2
SYMATTR InstName R2
SYMATTR Value 1k
SYMBOL res 848 448 R180
WINDOW 0 36 76 Left 2
WINDOW 3 36 40 Left 2
SYMATTR InstName R3
SYMATTR Value 3k
SYMBOL res 640 16 R270
WINDOW 0 32 56 VTop 2
WINDOW 3 0 56 VBottom 2
SYMATTR InstName R4
SYMATTR Value 50
SYMBOL res 960 80 R0
SYMATTR InstName R5
SYMATTR Value {rload}
SYMBOL zener 144 272 R180
WINDOW 0 24 64 Left 2
WINDOW 3 24 0 Left 2
SYMATTR InstName D1
SYMATTR Value 1N750
SYMBOL LM741 352 208 M180
SYMATTR InstName U1
TEXT -80 488 Left 2 !;tran 10ms
TEXT -72 544 Left 2 !.step param rload 1 500 20
TEXT -64 400 Left 2 !.op
