Version 4
SHEET 1 1504 680
WIRE 1200 -544 1200 -576
WIRE 816 -464 592 -464
WIRE 960 -448 880 -448
WIRE 1056 -448 960 -448
WIRE 816 -432 784 -432
WIRE 784 -352 784 -432
WIRE 960 -352 960 -368
WIRE 960 -352 784 -352
WIRE 960 -336 960 -352
WIRE 1056 -304 1056 -448
WIRE 1088 -304 1056 -304
WIRE 1200 -304 1200 -464
WIRE 1200 -304 1168 -304
WIRE 1248 -304 1200 -304
WIRE 80 -288 32 -288
WIRE 224 -288 160 -288
WIRE 288 -288 224 -288
WIRE 400 -288 368 -288
WIRE 848 -288 848 -416
WIRE 848 -288 784 -288
WIRE 1360 -288 1312 -288
WIRE 1456 -288 1360 -288
WIRE 1088 -272 1056 -272
WIRE 1200 -272 1168 -272
WIRE 1248 -272 1200 -272
WIRE 224 -240 224 -288
WIRE 960 -240 960 -256
WIRE 960 -240 784 -240
WIRE 960 -224 960 -240
WIRE 848 -176 848 -288
WIRE 784 -160 784 -240
WIRE 816 -160 784 -160
WIRE 960 -144 880 -144
WIRE 1056 -144 1056 -272
WIRE 1056 -144 960 -144
WIRE 816 -128 784 -128
WIRE 80 -112 32 -112
WIRE 224 -112 160 -112
WIRE 288 -112 224 -112
WIRE 400 -112 368 -112
WIRE 1200 -112 1200 -272
WIRE 1248 -112 1200 -112
WIRE 1360 -112 1360 -288
WIRE 1360 -112 1328 -112
WIRE 224 -64 224 -112
WIRE 128 0 -16 0
WIRE 400 0 128 0
WIRE 592 0 592 -464
WIRE 592 0 496 0
WIRE 640 0 640 -64
WIRE 640 0 592 0
WIRE 656 0 640 0
WIRE 752 0 752 -64
WIRE 752 0 736 0
WIRE 784 0 784 -128
WIRE 784 0 752 0
WIRE 832 0 784 0
WIRE 976 0 832 0
WIRE 128 32 128 0
WIRE 832 48 832 0
WIRE 592 80 592 0
WIRE 976 96 976 0
WIRE 352 112 352 96
WIRE -16 128 -16 0
WIRE 128 128 128 112
WIRE 320 128 128 128
WIRE 448 144 448 64
WIRE 448 144 384 144
WIRE 544 144 448 144
WIRE 784 144 784 0
WIRE 784 144 640 144
WIRE 320 160 208 160
WIRE 352 192 352 176
WIRE 128 208 128 128
WIRE -16 256 -16 208
WIRE 976 256 976 176
WIRE 208 304 208 160
WIRE 832 304 832 128
WIRE 832 304 208 304
WIRE 128 336 128 272
WIRE 832 352 832 304
WIRE 832 464 832 432
FLAG 224 -64 0
FLAG 400 -112 +Vcc1
IOPIN 400 -112 Out
FLAG 32 -112 -Vcc1
IOPIN 32 -112 Out
FLAG -16 256 0
FLAG 128 336 0
FLAG 832 464 0
FLAG 976 256 0
FLAG 352 192 +Vcc1
IOPIN 352 192 In
FLAG 352 96 -Vcc1
IOPIN 352 96 In
FLAG 224 -240 0
FLAG 400 -288 +Vcc2
IOPIN 400 -288 Out
FLAG 32 -288 -Vcc2
IOPIN 32 -288 Out
FLAG 848 -480 -Vcc2
IOPIN 848 -480 In
FLAG 1280 -320 -Vcc2
IOPIN 1280 -320 In
FLAG 848 -112 -Vcc2
IOPIN 848 -112 In
FLAG 1280 -256 +Vcc2
IOPIN 1280 -256 In
FLAG 784 -288 +Vcc2
IOPIN 784 -288 In
FLAG 1200 -576 0
FLAG 640 -64 Vcurrent+
FLAG 752 -64 Vcurrent-
FLAG 1456 -288 Vo
SYMBOL voltage -16 112 R0
WINDOW 123 0 0 Left 0
WINDOW 39 0 0 Left 0
SYMATTR InstName V1
SYMATTR Value 10
SYMBOL voltage 384 -112 R90
WINDOW 0 -32 56 VBottom 2
WINDOW 3 32 56 VTop 2
WINDOW 123 0 0 Left 0
WINDOW 39 0 0 Left 0
SYMATTR InstName V2
SYMATTR Value 20
SYMBOL voltage 176 -112 R90
WINDOW 0 32 56 VTop 2
WINDOW 3 -32 56 VBottom 2
WINDOW 123 0 0 Left 0
WINDOW 39 0 0 Left 0
SYMATTR InstName V3
SYMATTR Value 20
SYMBOL res 112 16 R0
SYMATTR InstName R1
SYMATTR Value 1k
SYMBOL npn 400 64 R270
SYMATTR InstName Q1
SYMATTR Value 2N3904
SYMBOL npn 544 80 M90
SYMATTR InstName Q2
SYMATTR Value 2N3904
SYMBOL res 848 144 R180
WINDOW 0 36 76 Left 2
WINDOW 3 36 40 Left 2
SYMATTR InstName R2
SYMATTR Value 1k
SYMBOL res 848 448 R180
WINDOW 0 36 76 Left 2
WINDOW 3 36 40 Left 2
SYMATTR InstName R3
SYMATTR Value 3k
SYMBOL res 640 16 R270
WINDOW 0 32 56 VTop 2
WINDOW 3 0 56 VBottom 2
SYMATTR InstName R4
SYMATTR Value 50
SYMBOL res 960 80 R0
SYMATTR InstName R5
SYMATTR Value {rload}
SYMBOL zener 144 272 R180
WINDOW 0 24 64 Left 2
WINDOW 3 24 0 Left 2
SYMATTR InstName D1
SYMATTR Value 1N750
SYMBOL LM741 352 208 M180
SYMATTR InstName U1
SYMBOL OpAmps\\OP07 848 -384 M180
SYMATTR InstName U2
SYMBOL OpAmps\\OP07 848 -208 R0
SYMATTR InstName U3
SYMBOL OpAmps\\OP07 1280 -224 M180
SYMATTR InstName U4
SYMBOL res 944 -352 R0
SYMATTR InstName R6
SYMATTR Value 5k
SYMBOL res 944 -464 R0
SYMATTR InstName R7
SYMATTR Value 5k
SYMBOL res 944 -240 R0
SYMATTR InstName R8
SYMATTR Value 5k
SYMBOL res 1216 -448 R180
WINDOW 0 36 76 Left 2
WINDOW 3 36 40 Left 2
SYMATTR InstName R9
SYMATTR Value 5k
SYMBOL res 1184 -288 R90
WINDOW 0 0 56 VBottom 2
WINDOW 3 32 56 VTop 2
SYMATTR InstName R10
SYMATTR Value 5k
SYMBOL res 1184 -320 R90
WINDOW 0 0 56 VBottom 2
WINDOW 3 32 56 VTop 2
SYMATTR InstName R11
SYMATTR Value 5k
SYMBOL res 1344 -128 R90
WINDOW 0 0 56 VBottom 2
WINDOW 3 32 56 VTop 2
SYMATTR InstName R12
SYMATTR Value 5k
SYMBOL voltage 384 -288 R90
WINDOW 0 -32 56 VBottom 2
WINDOW 3 32 56 VTop 2
WINDOW 123 0 0 Left 0
WINDOW 39 0 0 Left 0
SYMATTR InstName V4
SYMATTR Value 10
SYMBOL voltage 176 -288 R90
WINDOW 0 32 56 VTop 2
WINDOW 3 -32 56 VBottom 2
WINDOW 123 0 0 Left 0
WINDOW 39 0 0 Left 0
SYMATTR InstName V5
SYMATTR Value 10
TEXT -80 488 Left 2 !.tran 100ms
TEXT -88 528 Left 2 !;step param rload 1 500 20
TEXT -80 456 Left 2 !.op
TEXT -80 560 Left 2 !.param rload=100
