Version 4
SHEET 1 5652 824
WIRE 1200 -544 1200 -576
WIRE 816 -464 592 -464
WIRE 960 -448 880 -448
WIRE 1056 -448 960 -448
WIRE 816 -432 784 -432
WIRE 784 -352 784 -432
WIRE 960 -352 960 -368
WIRE 960 -352 784 -352
WIRE 960 -336 960 -352
WIRE 1056 -304 1056 -448
WIRE 1088 -304 1056 -304
WIRE 1200 -304 1200 -464
WIRE 1200 -304 1168 -304
WIRE 1248 -304 1200 -304
WIRE 848 -288 848 -416
WIRE 848 -288 784 -288
WIRE 1360 -288 1312 -288
WIRE 1456 -288 1360 -288
WIRE 1088 -272 1056 -272
WIRE 1200 -272 1168 -272
WIRE 1248 -272 1200 -272
WIRE 960 -240 960 -256
WIRE 960 -240 784 -240
WIRE 960 -224 960 -240
WIRE 848 -176 848 -288
WIRE 784 -160 784 -240
WIRE 816 -160 784 -160
WIRE 960 -144 880 -144
WIRE 1056 -144 1056 -272
WIRE 1056 -144 960 -144
WIRE 816 -128 784 -128
WIRE 1200 -112 1200 -272
WIRE 1248 -112 1200 -112
WIRE 1360 -112 1360 -288
WIRE 1360 -112 1328 -112
WIRE -16 0 -176 0
WIRE 128 0 -16 0
WIRE 400 0 128 0
WIRE 592 0 592 -464
WIRE 592 0 496 0
WIRE 640 0 640 -64
WIRE 640 0 592 0
WIRE 656 0 640 0
WIRE 752 0 752 -64
WIRE 752 0 736 0
WIRE 784 0 784 -128
WIRE 784 0 752 0
WIRE 832 0 784 0
WIRE 1552 0 832 0
WIRE 1584 0 1552 0
WIRE 128 32 128 0
WIRE 832 48 832 0
WIRE 592 80 592 0
WIRE 1552 80 1552 0
WIRE 352 112 352 96
WIRE -16 128 -16 0
WIRE 128 128 128 112
WIRE 320 128 128 128
WIRE 448 144 448 64
WIRE 448 144 384 144
WIRE 544 144 448 144
WIRE 784 144 784 0
WIRE 784 144 640 144
WIRE 1200 144 1008 144
WIRE 128 160 128 128
WIRE 128 160 96 160
WIRE 320 160 208 160
WIRE 352 192 352 176
WIRE 128 208 128 160
WIRE 1552 208 1552 160
WIRE -16 256 -16 208
WIRE 1008 272 1008 144
WIRE 1072 272 1008 272
WIRE 1200 288 1200 144
WIRE 1200 288 1136 288
WIRE 1296 288 1200 288
WIRE 208 304 208 160
WIRE 832 304 832 128
WIRE 832 304 208 304
WIRE 1072 304 832 304
WIRE -240 320 -240 256
WIRE 832 352 832 304
WIRE 832 464 832 432
FLAG -16 256 0
FLAG -240 320 0
FLAG 832 464 0
FLAG 352 192 Vcc+
IOPIN 352 192 In
FLAG 784 -288 Vcc+
IOPIN 784 -288 In
FLAG 1200 -576 0
FLAG 640 -64 Vcurrent+
FLAG 752 -64 Vcurrent-
FLAG 1456 -288 Vcurrent
FLAG 1104 256 Vcc+
IOPIN 1104 256 In
FLAG 1296 288 CAD
IOPIN 1296 288 Out
FLAG -176 0 Vcc+
IOPIN -176 0 Out
FLAG 352 96 0
FLAG 1104 320 0
FLAG 848 -112 0
FLAG 848 -480 0
FLAG 1280 -256 Vcc+
IOPIN 1280 -256 In
FLAG 1280 -320 0
FLAG 128 288 0
FLAG 1552 208 0
FLAG 96 160 Vref
IOPIN 96 160 Out
FLAG 1584 0 Vo
IOPIN 1584 0 Out
SYMBOL voltage -16 112 R0
WINDOW 123 0 0 Left 0
WINDOW 39 0 0 Left 0
SYMATTR InstName V1
SYMATTR Value 14
SYMBOL res 112 16 R0
SYMATTR InstName R1
SYMATTR Value 4k
SYMBOL npn 400 64 R270
SYMATTR InstName BD135
SYMATTR Value 2N3904
SYMBOL npn 544 80 M90
SYMATTR InstName Q2
SYMATTR Value BC547B
SYMBOL res 848 144 R180
WINDOW 0 36 76 Left 2
WINDOW 3 36 40 Left 2
SYMATTR InstName R2
SYMATTR Value 14k
SYMBOL res 848 448 R180
WINDOW 0 36 76 Left 2
WINDOW 3 36 40 Left 2
SYMATTR InstName R3
SYMATTR Value 10k
SYMBOL res 640 16 R270
WINDOW 0 32 56 VTop 2
WINDOW 3 0 56 VBottom 2
SYMATTR InstName R4
SYMATTR Value 6.2
SYMBOL res 1536 64 R0
SYMATTR InstName R5
SYMATTR Value {rload}
SYMBOL zener -224 256 R180
WINDOW 0 24 64 Left 2
WINDOW 3 24 0 Left 2
SYMATTR InstName D1
SYMATTR Value 1N750
SYMBOL LM741 352 208 M180
SYMATTR InstName U1
SYMBOL OpAmps\\OP07 848 -384 M180
SYMATTR InstName U2
SYMBOL OpAmps\\OP07 848 -208 R0
SYMATTR InstName U3
SYMBOL OpAmps\\OP07 1280 -224 M180
SYMATTR InstName U4
SYMBOL res 944 -352 R0
SYMATTR InstName R6
SYMATTR Value 3k
SYMBOL res 944 -464 R0
SYMATTR InstName R7
SYMATTR Value 5k
SYMBOL res 944 -240 R0
SYMATTR InstName R8
SYMATTR Value 5k
SYMBOL res 1216 -448 R180
WINDOW 0 36 76 Left 2
WINDOW 3 36 40 Left 2
SYMATTR InstName R9
SYMATTR Value 5k
SYMBOL res 1184 -288 R90
WINDOW 0 0 56 VBottom 2
WINDOW 3 32 56 VTop 2
SYMATTR InstName R10
SYMATTR Value 5k
SYMBOL res 1184 -320 R90
WINDOW 0 0 56 VBottom 2
WINDOW 3 32 56 VTop 2
SYMATTR InstName R11
SYMATTR Value 5k
SYMBOL res 1344 -128 R90
WINDOW 0 0 56 VBottom 2
WINDOW 3 32 56 VTop 2
SYMATTR InstName R12
SYMATTR Value 5k
SYMBOL OpAmps\\OP07 1104 224 R0
SYMATTR InstName U5
SYMBOL voltage 128 192 R0
WINDOW 123 0 0 Left 0
WINDOW 39 0 0 Left 0
SYMATTR InstName V2
SYMATTR Value {Vref}
TEXT -72 504 Left 2 !;tran 1s
TEXT 1672 0 Left 2 !;step param rload 1 500 20
TEXT -72 472 Left 2 !.op
TEXT -80 568 Left 2 !.model BD135 NPN(Is=40f Xti=3 Eg=1.11 Vaf=115.7 Bf=180.2 Ise=40f Ne=1.363 Ikf=4.927 Nk=1.247 Xtb=1.5 Br=10 Isc=85f Nc=2 Ikr=0 Rc=0 Cjc=19.23p Mjc=.3439 Vjc=.5635 Fc=.5 Cje=60.49p Mje=.3589 Vje=.7585 Tr=116n Tf=550p Itf=1 Xtf=0 Vtf=10 QCO=1E-10 GAMMA=1E-8 RCO=5)
TEXT 1672 40 Left 2 !.param rload 500
TEXT -80 608 Left 2 !.model BC547B NPN(IS=2.39E-14 NF=1.008 ISE=3.545E-15 NE=1.541 BF=294.3 IKF=0.1357 VAF=63.2 NR=1.004 ISC=6.272E-14 NC=1.243 BR=7.946 IKR=0.1144 VAR=25.9 RB=1 IRB=1.00E-06 RBM=1 RE=0.4683 RC=0.85 XTB=0 EG=1.11 XTI=3 CJE=1.358E-11 VJE=0.65 MJE=0.3279 TF=4.391E-10 XTF=120 VTF=2.643 ITF=0.7495 PTF=0 CJC=3.728E-12 VJC=0.3997 MJC=0.2955 XCJC=0.6193 TR=1.00E-32 CJS=0 VJS=0.75 MJS=0.333 FC=0.9579 Vceo=45 Icrating=100m mfg=Philips)
TEXT -136 368 Left 2 !.step param Vref 2 3.3 0.2
